[TITLE]

[JUNCTIONS]
1 	 90.000000
2 	 88.000000
3 	 90.000000
4 	 85.000000
add_node-1-1 	 103.620300
add_node-2-1 	 88.908020

[RESERVOIRS]
0 	 120.000000
add_node-1-1-R2-r 	 103.620300
add_node-2-1-R2-r 	 88.908020

[PIPES]
1 	 0 	 1 	 1000.000000 	 400.000000 	 130.000000 	 0.000000 	 Closed;
2 	 1 	 2 	 1000.000000 	 350.000000 	 130.000000 	 0.000000 	 Closed;
3 	 2 	 3 	 1000.000000 	 300.000000 	 130.000000 	 0.000000 	 
4 	 3 	 4 	 1000.000000 	 300.000000 	 130.000000 	 0.000000 	 
addP-1-1 	 0 	 add_node-1-1 	 545.990000 	 400.000000 	 130.000000 	 0.000000 	 Open
addP-1-2 	 add_node-1-1 	 1 	 454.010000 	 400.000000 	 130.000000 	 0.000000 	 
addP-2-1 	 1 	 add_node-2-1 	 545.990000 	 350.000000 	 130.000000 	 0.000000 	 
addP-2-2 	 add_node-2-1 	 2 	 454.010000 	 350.000000 	 130.000000 	 0.000000 	 
add_node-1-1leak-pipe2-r 	 add_node-1-1 	 add_node-1-1-R2-r 	 0.152400 	 60.478100 	 1000000.000000 	 2.777800 	 CV
add_node-2-1leak-pipe2-r 	 add_node-2-1 	 add_node-2-1-R2-r 	 0.152400 	 60.478100 	 1000000.000000 	 2.777800 	 CV

[EMITTERS]
add_node-1-1 	 0.000000
add_node-2-1 	 0.000000

[PATTERNS]
1	1.000000	1.000000	1.000000	1.000000	1.000000	1.000000	
1	1.000000	1.000000	1.000000	1.000000	1.000000	1.000000	
1	1.000000	1.000000	1.000000	1.000000	1.000000	1.000000	
1	1.000000	1.000000	1.000000	1.000000	1.000000	1.000000	
2	1.000000	1.000000	1.000000	1.000000	1.000000	1.000000	
2	4.000000	4.000000	4.000000	4.000000	4.000000	4.000000	
2	4.000000	4.000000	4.000000	4.000000	4.000000	4.000000	
2	4.000000	4.000000	4.000000	4.000000	4.000000	4.000000	

[ENERGY]
GLOBAL	EFFIC	75.0000	
DEMAND	CHARGE	0.0000	

[DEMANDS]
1 	 33.330000 	1
2 	 33.330000 	1
3 	 50.000000 	1
4 	 16.670000 	2
add_node-1-1 	 0.000000 	
add_node-2-1 	 0.000000 	

[REACTIONS]
ORDER	BULK	1.000000
ORDER	WALL	1.000000
ORDER	TANK	1.000000
GLOBAL	BULK	0.000000
GLOBAL	WALL	0.000000

[OPTIONS]
UNITS 	 LPS 	 
PRESSURE 	 METERS 	 
HEADLOSS 	 H-W 	 
PATTERN 	 1 	 
UNBALANCED 	 CONTINUE 	 10
QUALITY 	 NONE 	 
DEMAND 	 MULTIPLIER 	 1.0000
EMITTER 	 EXPONENT 	 0.5000
VISCOSITY 	 1.000000 	 
DIFFUSIVITY 	 1.000000 	 
SPECIFIC 	 GRAVITY 	 1.000000
TRIALS 	 40 	 
ACCURACY 	 0.00100000 	 
TOLERANCE 	 0.01000000 	 
CHECKFREQ 	 2 	 
MAXCHECK 	 10 	 
DAMPLIMIT 	 0.00000000 	 

[TIMES]
DURATION 	 24:00:00 	 
HYDRAULIC 	 TIMESTEP 	 1:00:00
QUALITY 	 TIMESTEP 	 0:05:00
REPORT 	 TIMESTEP 	 1:00:00
REPORT 	 START 	 0:00:00
PATTERN 	 TIMESTEP 	 1:00:00
PATTERN 	 START 	 0:00:00
RULE 	 TIMESTEP 	 0:06:00
START 	 CLOCKTIME 	 0:00:00
STATISTIC 	 NONE 	 

[REPORT]
PAGESIZE 	 0 	 
STATUS 	 NO 	 
SUMMARY 	 NO 	 
ENERGY 	 NO 	 
NODES 	 NONE 	 
LINKS 	 NONE 	 
Elevation 	 NO 	 
Demand 	 PRECISION 	 2
Head 	 PRECISION 	 2
Pressure 	 PRECISION 	 2
Quality 	 NO 	 
Length 	 NO 	 
Diameter 	 NO 	 
Flow 	 PRECISION 	 2
Velocity 	 PRECISION 	 2
Headloss 	 PRECISION 	 2
Quality 	 NO 	 
State 	 NO 	 
Setting 	 NO 	 
Reaction 	 NO 	 

[COORDINATES]
1 	 1500.000000 	 7000.000000
2 	 3000.000000 	 7000.000000
3 	 4500.000000 	 7000.000000
4 	 6000.000000 	 7000.000000
0 	 0.000000 	 7000.000000
add_node-1-1 	 818.985000 	 7000.000000
add_node-2-1 	 2318.985000 	 7000.000000
add_node-1-1-R2-r 	 818.985000 	 7000.000000
add_node-2-1-R2-r 	 2318.985000 	 7000.000000

[BACKDROP]
DIMENSIONS 	 0.00 	 0.00 	 10000.00 	 10000.00
UNITS 	 None 	  	  	 
FILE 	  	  	  	 
OFFSET 	 0.00 	 0.00 	  	 

[END]